44

C             -3.63501698             0.67917712            -0.00000000
C             -2.44067137             1.41364740            -0.00000000
C             -1.22352318             0.70942258            -0.00000000
C              0.00000000             1.42260738             0.00000000
C              1.22352318             0.70942258             0.00000000
C              2.44067137             1.41364740             0.00000000
C              3.63501698             0.67917712             0.00000000
C             -3.63501698             3.58488263             0.00000000
C             -3.63501698             4.94323687             0.00000000
C             -2.44067137             2.85041236             0.00000000
C             -1.22352318             3.55463717             0.00000000
C              0.00000000             2.84145238             0.00000000
C              1.22352318             3.55463717             0.00000000
C              2.44067137             2.85041236             0.00000000
C              3.63501698             3.58488263             0.00000000
C              3.63501698             4.94323687             0.00000000
H             -4.59680947            -1.19894451             0.00000000
H             -4.59680947             1.19894451            -0.00000000
H              4.59680947            -1.19894451             0.00000000
H              4.59680947             1.19894451            -0.00000000
H             -4.59680947             3.06511524             0.00000000
H             -4.59680947             5.46300426             0.00000000
H              4.59680947             3.06511524             0.00000000
H              4.59680947             5.46300426             0.00000000
C             -3.63501698            -0.67917712             0.00000000
C              3.63501698            -0.67917712            -0.00000000
C             -2.44067137            -1.41364740             0.00000000
C             -1.22352318            -0.70942258             0.00000000
C             -0.00000000            -1.42260738             0.00000000
C              1.22352318            -0.70942258            -0.00000000
C              2.44067137            -1.41364740            -0.00000000
C             -2.44067137             5.67770715             0.00000000
C             -1.22352318             4.97348234             0.00000000
C              0.00000000             5.68666713             0.00000000
C              1.22352318             4.97348234             0.00000000
C              2.44067137             5.67770715             0.00000000
H             -2.44067137            -2.50689740             0.00000000
H              0.00000000            -2.19565187             0.77304449
H              0.00000000            -2.19565187            -0.77304449
H              2.44067137            -2.50689740             0.00000000
H              2.44067137             6.77095715             0.00000000
H              0.00000000             6.45971162             0.77304449
H              0.00000000             6.45971162            -0.77304449
H             -2.44067137             6.77095715             0.00000000
